LTspice 24.0.11 for Windows
Circuit: * C:\Users\alex_\Documents\IKP\HYDRA\VMM3Adapter_FCI_CARD\KiCAD\Git\HYDRA_VMM3_Adapter\LTSpice\Draft1.asc
Start Time: Thu Oct 10 13:45:45 2024
solver = Normal
Maximum thread count: 20
tnom = 27
temp = 27
method = modified trap
Limiting rise time of source v1 to 0.005
Limiting fall time of source v1 to 0.005
Direct Newton iteration for .op point succeeded.
Total elapsed time: 0.040 seconds.

