LTspice 24.0.12 for Windows
Circuit: * C:\Users\alex_\Documents\IKP\HYDRA\HYDRA_VMM3_Adapter\Spartan7_TriggerLogic\Clock_Buffers_1-16\spice\PDN.asc
Start Time: Tue Aug 19 16:51:08 2025
solver = Normal
Maximum thread count: 20
tnom = 27
temp = 27
method = modified trap
c6: Increased Cpar to 1e-13
c7: Increased Cpar to 1e-12
c8: Increased Cpar to 1e-13
c9: Increased Cpar to 1e-12
c10: Increased Cpar to 1e-13
c11: Increased Cpar to 1e-12
c3: Increased Cpar to 1e-13
c4: Increased Cpar to 1e-12
c5: Increased Cpar to 1e-13
c12: Increased Cpar to 1e-12
c13: Increased Cpar to 1e-13
c14: Increased Cpar to 1e-12
c2: Increased Cpar to 3.3e-11
c1: Increased Cpar to 1e-12
Direct Newton iteration for .op point succeeded.
Total elapsed time: 0.044 seconds.

