LTspice 24.0.12 for Windows
Circuit: * C:\Users\alex_\Documents\IKP\HYDRA\HYDRA_VMM3_Adapter\AddOns\spice\PassiveFilter_vs_CKBuffer.asc
Start Time: Wed Sep  3 14:17:20 2025
solver = Normal
Maximum thread count: 20
tnom = 27
temp = 27
method = modified trap
Fatal Error: PWL time,value pairs out of chronological order in source v3
    0.00037 is not before 0.00034
